<!-- simulation.sumocfg -->
<configuration>
    <input>
        <net-file value="ex.net.xml"/>
        <route-files value="ex.rou.xml"/>
    </input>
    <time>
        <begin value="0"/>
        <end value="10000"/>
    </time>
</configuration>
